include kalj.lmp
units lj
atom_style atomic

variable dimensions equal 3
variable density equal 1.2
variable fraca equal 0.8

dimension 3
read_restart equil/kalj_T0.5_n360_v300_10000000_1.final.lmprestart.10000000
Reading restart file ...
  restart file = 15 Sep 2022, LAMMPS = 15 Sep 2022
  restoring atom style atomic from restart
  orthogonal box = (0 0 0) to (6.6943295 6.6943295 6.6943295)
  restoring pair style lj/cut from restart
  360 atoms
  read_restart CPU = 0.063 seconds
include kalj_particles.lmp
mass * 1.0 #  set mass 1.0 for all types

pair_style lj/cut 2.5
#pair coeffs type1 type2 eps sigma
pair_coeff 1 1 1.0 1.00 2.5
pair_coeff 1 2 1.5 0.80 2.0
pair_coeff 2 2 0.5 0.88 2.2
pair_modify shift yes
reset_timestep 0

print "Setting up equilibration run"
Setting up equilibration run
variable dumptime2 equal 10000000/2000
dump 1 all dcd 5000 prod/kalj_T0.5_n360_v300_prod_10000000_1.unwrap.dcd
dump_modify 1 unwrap yes
#dump_modify 2 unwrap no

restart 10000000 prod/kalj_T0.5_n360_v300_prod_10000000_1.restart
restart 10000000 prod/kalj_T0.5_n360_v300_prod_10000000_1.final.lmprestart

thermo 100000
timestep 0.003

neighbor 0.5 bin
neigh_modify every 1 delay 25 check yes

fix 1 all nvt temp 0.5 0.5 0.3
  fix style: nvt, fix ID: 1

variable steps4 equal 10000000/4
run 2500000
Generated 0 of 1 mixed pair_coeff terms from geometric mixing rule
All restart file global fix info was re-assigned
Step          Temp          E_pair         E_mol          TotEng         Press
0   0.52723295    -6.8712569      0             -6.0826043      4.0423733
Averages over the last 13 of 26 rows, steps 1300000 to 2500000:
Temp E_pair E_mol TotEng Press
0.492559 -6.91944 0 -6.18266 3.63334
Loop time of 120.377 on 48 procs for 2500000 steps with 360 atoms
